/*---------------------------------------------------------------------------*\
| =========                 |                                                 |
| \\      /  F ield         | OpenFOAM: The Open Source CFD Toolbox           |
|  \\    /   O peration     | Version:  1.5                                   |
|   \\  /    A nd           | Web:      http://www.OpenFOAM.org               |
|    \\/     M anipulation  |                                                 |
\*---------------------------------------------------------------------------*/
Exec   : turbFoam
Date   : Feb 25 2009
Time   : 17:16:49
Host   : lxserv58.smhi.se
PID    : 28167
Case   : /data/proj2/Ml-data/miljosakerhet_ml/CFD/OpenFOAM/wgyllenr-1.5/applications/solvers/incompressible/transientSimpleFoam
nProcs : 1

// * * * * * * * * * * * * * * * * * * * * * * * * * * * * * * * * * * * * * //
Create time

